# CIF file generated by openbabel 3.1.1, see https://openbabel.org
data_I
_chemical_name_common ''
_cell_length_a 15.437
_cell_length_b 24.06
_cell_length_c 14.261
_cell_angle_alpha 90
_cell_angle_beta 90
_cell_angle_gamma 90
_space_group_name_H-M_alt 'P 21 21 2'
_space_group_name_Hall 'P 2 2ab'
loop_
    _symmetry_equiv_pos_as_xyz
    x,y,z
    -x,-y,z
    1/2-x,1/2+y,-z
    1/2+x,1/2-y,-z
loop_
    _atom_site_label
    _atom_site_type_symbol
    _atom_site_fract_x
    _atom_site_fract_y
    _atom_site_fract_z
    _atom_site_occupancy
    Al0      Al       0.07100    0.45470    0.16899    1.000
    Al1      Al       0.38803    0.83861    0.70900    1.000
    Al2      Al       0.45501    0.70299    0.72800    1.000
    Al3      Al       0.49498    0.56700    0.73999    1.000
    O4       O        0.50003    0.50000    0.81397    1.000
    O5       O        0.48099    0.63200    0.67001    1.000
    O6       O        0.43001    0.77498    0.77800    1.000
    O7       O        0.03103    0.38899    0.23098    1.000
    O8       O        0.00000    0.50000    0.25202    1.000
    S9       S        0.17102    0.76280    0.49400    1.000
    C10      C        0.23003    0.71920    0.56300    1.000
    C11      C        0.20399    0.66542    0.55697    1.000
    C12      C        0.13403    0.65910    0.49499    1.000
    C13      C        0.11000    0.70831    0.45600    1.000
    C14      C        0.30103    0.74302    0.62099    1.000
    O15      O        0.36503    0.71301    0.64596    1.000
    O16      O        0.29799    0.79401    0.64399    1.000
    C17      C        0.03997    0.71999    0.38798    1.000
    O18      O        0.04399    0.76301    0.33602    1.000
    O19      O        0.97603    0.68699    0.38097    1.000
    S20      S        0.20457    0.93890    0.51301    1.000
    C21      C        0.26197    0.97660    0.59196    1.000
    C22      C        0.24901    0.03229    0.58397    1.000
    C23      C        0.19097    0.04489    0.51097    1.000
    C24      C        0.16201    0.99842    0.46701    1.000
    C25      C        0.31800    0.94601    0.65900    1.000
    O26      O        0.34301    0.89701    0.64098    1.000
    O27      O        0.34100    0.96899    0.73599    1.000
    C28      C        0.10002    0.99302    0.38700    1.000
    O29      O        0.05597    0.03500    0.36197    1.000
    O30      O        0.09199    0.94701    0.34500    1.000
    S31      S        0.24137    0.55648    0.94755    1.000
    C32      C        0.26501    0.61692    0.89096    1.000
    C33      C        0.20801    0.65831    0.90996    1.000
    C34      C        0.14297    0.64081    0.97300    1.000
    C35      C        0.15301    0.58678    0.99797    1.000
    C36      C        0.34197    0.61800    0.82897    1.000
    O37      O        0.38803    0.57398    0.81895    1.000
    O38      O        0.36302    0.66201    0.78599    1.000
    C39      C        0.09898    0.55262    0.06297    1.000
    O40      O        0.02002    0.56401    0.07398    1.000
    O41      O        0.13299    0.51201    0.10602    1.000
    S42      S        0.19401    0.89131    0.02398    1.000
    C43      C        0.13098    0.83761    0.06199    1.000
    C44      C        0.14297    0.79048    0.01101    1.000
    C45      C        0.20399    0.79788    0.93899    1.000
    C46      C        0.23703    0.85029    0.93794    1.000
    C47      C        0.07301    0.84701    0.14298    1.000
    O48      O        0.04703    0.80698    0.19199    1.000
    O49      O        0.04897    0.89701    0.16296    1.000
    C50      C        0.30297    0.87498    0.87497    1.000
    O51      O        0.35901    0.90902    0.90695    1.000
    O52      O        0.30401    0.86201    0.78900    1.000
    H53      H        0.49990    0.50000    0.74735    1.000
    H54      H        0.05765    0.35661    0.20244    1.000
    H55      H        0.00000    0.50000    0.18540    1.000
    H56      H        0.23217    0.63313    0.59351    1.000
    H57      H        0.10436    0.62161    0.48075    1.000
    H58      H        0.21170    0.69776    0.88178    1.000
    H59      H        0.09374    0.66608    0.99720    1.000
    H60      H        0.22511    0.76891    0.89075    1.000
    H61      H        0.42003    0.75694    0.81285    1.000
    H62      H        0.46635    0.60399    0.63691    1.000
    H63      H        0.26637    0.06264    0.63158    1.000
    H64      H        0.16577    0.08446    0.50501    1.000
    H65      H        0.10896    0.75490    0.02763    1.000
