
#======================================================================
# CRYSTAL DATA
#----------------------------------------------------------------------
data_VESTA_phase_1

_chemical_name_common                  'KMF-1 dehydrated'
_cell_length_a                         21.225000
_cell_length_b                         21.225000
_cell_length_c                         10.642400
_cell_angle_alpha                      90.000000
_cell_angle_beta                       90.000000
_cell_angle_gamma                      90.000000
_cell_volume                           4794.407928
_space_group_name_H-M_alt              'I 41/a m d'
_space_group_IT_number                 141

loop_
_space_group_symop_operation_xyz
   'x, y, z'
   '-x+1/2t, -y+1/2t, z+1/2t'
   '-y, x+1/2t, z+1/4t'
   'y+1/2t, -x, z+3/4t'
   '-x+1/2t, y, -z+3/4t'
   'x, -y+1/2t, -z+1/4t'
   'y+1/2t, x+1/2t, -z+1/2t'
   '-y, -x, -z'
   '-x, -y+1/2t, -z+1/4t'
   'x+1/2t, y, -z+3/4t'
   'y, -x, -z'
   '-y+1/2t, x+1/2t, -z+1/2t'
   'x+1/2t, -y+1/2t, z+1/2t'
   '-x, y, z'
   '-y+1/2t, -x, z+3/4t'
   'y, x+1/2t, z+1/4t'
   'x+1/2t, y+1/2t, z+1/2t'
   '-x, -y, z'
   '-y+1/2t, x, z+3/4t'
   'y, -x+1/2t, z+1/4t'
   '-x, y+1/2t, -z+1/4t'
   'x+1/2t, -y, -z+3/4t'
   'y, x, -z'
   '-y+1/2t, -x+1/2t, -z+1/2t'
   '-x+1/2t, -y, -z+3/4t'
   'x, y+1/2t, -z+1/4t'
   'y+1/2t, -x+1/2t, -z+1/2t'
   '-y, x, -z'
   'x, -y, z'
   '-x+1/2t, y+1/2t, z+1/2t'
   '-y, -x+1/2t, z+1/4t'
   'y+1/2t, x, z+3/4t'

loop_
   _atom_site_label
   _atom_site_occupancy
   _atom_site_fract_x
   _atom_site_fract_y
   _atom_site_fract_z
   _atom_site_adp_type
   _atom_site_U_iso_or_equiv
   _atom_site_type_symbol
   Al1        1.0     0.185500     0.250000     0.125000    Uiso  ? Al
   O1         1.0     0.245000     0.245000     0.000000    Uiso  ? O
   O2         1.0     0.244400     0.120100     0.003600    Uiso  ? O
   O3         1.0     0.182800     0.158800     0.145500    Uiso  ? O
   N1         1.0     0.213200     0.000000     0.085100    Uiso  ? N
   C1         1.0     0.196500     0.052200     0.140200    Uiso  ? C
   C2         1.0     0.209100     0.108300     0.082600    Uiso  ? C
   C3         1.0     0.167300     0.036500     0.264000    Uiso  ? C
   H8         1.0     0.213330     0.213330     0.000000    Uiso  ? H
   H9         1.0     0.233360     0.000000     0.001880    Uiso  ? H
   H10        1.0     0.141860     0.070200     0.312160    Uiso  ? H
