# CIF file generated by openbabel 3.1.1, see https://openbabel.org
data_I
_chemical_name_common 'KMF-1 dehydrated'
_cell_length_a 21.225
_cell_length_b 21.225
_cell_length_c 10.6424
_cell_angle_alpha 90
_cell_angle_beta 90
_cell_angle_gamma 90
_space_group_name_H-M_alt 'I 41/a m d'
_space_group_name_Hall 'I 4bw 2bw -1bw'
loop_
    _symmetry_equiv_pos_as_xyz
    x,y,z
    1/2-x,1/2-y,1/2+z
    -y,1/2+x,1/4+z
    1/2+y,-x,3/4+z
    1/2-x,y,3/4-z
    x,1/2-y,1/4-z
    1/2+y,1/2+x,1/2-z
    -y,-x,-z
    -x,1/2-y,1/4-z
    1/2+x,y,3/4-z
    y,-x,-z
    1/2-y,1/2+x,1/2-z
    1/2+x,1/2-y,1/2+z
    -x,y,z
    1/2-y,-x,3/4+z
    y,1/2+x,1/4+z
    1/2+x,1/2+y,1/2+z
    -x,-y,z
    1/2-y,x,3/4+z
    y,1/2-x,1/4+z
    -x,1/2+y,1/4-z
    1/2+x,-y,3/4-z
    y,x,-z
    1/2-y,1/2-x,1/2-z
    1/2-x,-y,3/4-z
    x,1/2+y,1/4-z
    1/2+y,1/2-x,1/2-z
    -y,x,-z
    x,-y,z
    1/2-x,1/2+y,1/2+z
    -y,1/2-x,1/4+z
    1/2+y,x,3/4+z
loop_
    _atom_site_label
    _atom_site_type_symbol
    _atom_site_fract_x
    _atom_site_fract_y
    _atom_site_fract_z
    _atom_site_occupancy
    Al1      Al       0.18550    0.25000    0.12500    1.000
    O1       O        0.24500    0.24500    0.00000    1.000
    O2       O        0.24440    0.12010    0.00360    1.000
    O3       O        0.18280    0.15880    0.14550    1.000
    N1       N        0.21320    0.00160    0.08510    0.500
    C1       C        0.19650    0.05220    0.14020    1.000
    C2       C        0.20910    0.10830    0.08260    1.000
    C3       C        0.16730    0.03650    0.26400    1.000
    H8       H        0.21333    0.21333    0.00000    1.000
    H9       H        0.23336    0.00353    0.00188    1.000
    H10      H        0.14186    0.07020    0.31216    1.000
