# CIF file generated by openbabel 3.1.1, see https://openbabel.org
data_I
_chemical_name_common ''
_cell_length_a 21.074
_cell_length_b 21.074
_cell_length_c 10.647
_cell_angle_alpha 90
_cell_angle_beta 90
_cell_angle_gamma 90
_space_group_name_H-M_alt 'P 1'
_space_group_name_Hall 'P 1'
loop_
    _symmetry_equiv_pos_as_xyz
    x,y,z
loop_
    _atom_site_label
    _atom_site_type_symbol
    _atom_site_fract_x
    _atom_site_fract_y
    _atom_site_fract_z
    _atom_site_occupancy
    Al0      Al       0.31513    0.00000    0.00000    1.000
    O1       O        0.25529    0.00531    0.12501    1.000
    O2       O        0.38132    0.00522    0.11496    1.000
    O3       O        0.34222    0.06577    0.27510    1.000
    C4       C        0.38635    0.03777    0.21170    1.000
    C5       C        0.44804    0.05400    0.28233    1.000
    C6       C        0.46555    0.08356    0.38828    1.000
    O7       O        0.50000    0.03473    0.21245    1.000
    H8       H        0.43153    0.10046    0.44942    1.000
    Al9      Al       0.18487    0.00000    0.49995    1.000
    Al10     Al       0.24998    0.06510    0.25002    1.000
    Al11     Al       0.24998    0.93490    0.74998    1.000
    Al12     Al       0.68487    0.00000    0.00000    1.000
    Al13     Al       0.81508    0.00000    0.49995    1.000
    Al14     Al       0.74998    0.93490    0.74998    1.000
    Al15     Al       0.74998    0.06510    0.25002    1.000
    Al16     Al       0.81508    0.50000    0.49995    1.000
    Al17     Al       0.68487    0.50000    0.00000    1.000
    Al18     Al       0.74998    0.56510    0.74998    1.000
    Al19     Al       0.74998    0.43490    0.25002    1.000
    Al20     Al       0.18487    0.50000    0.49995    1.000
    Al21     Al       0.31513    0.50000    0.00000    1.000
    Al22     Al       0.24998    0.43490    0.25002    1.000
    Al23     Al       0.24998    0.56510    0.74998    1.000
    O24      O        0.24471    0.99469    0.62496    1.000
    O25      O        0.24471    0.00531    0.37504    1.000
    O26      O        0.25529    0.99469    0.87499    1.000
    O27      O        0.74471    0.99469    0.87499    1.000
    O28      O        0.75529    0.00531    0.37504    1.000
    O29      O        0.75529    0.99469    0.62496    1.000
    O30      O        0.74471    0.00531    0.12501    1.000
    O31      O        0.75529    0.50531    0.62496    1.000
    O32      O        0.74471    0.49469    0.12501    1.000
    O33      O        0.74471    0.50531    0.87499    1.000
    O34      O        0.75529    0.49469    0.37504    1.000
    O35      O        0.24471    0.49469    0.37504    1.000
    O36      O        0.25529    0.50531    0.87499    1.000
    O37      O        0.25529    0.49469    0.12501    1.000
    O38      O        0.24471    0.50531    0.62496    1.000
    O39      O        0.11868    0.99478    0.61501    1.000
    O40      O        0.24476    0.13135    0.36499    1.000
    O41      O        0.25524    0.86865    0.86494    1.000
    O42      O        0.11868    0.00522    0.38499    1.000
    O43      O        0.38132    0.99478    0.88504    1.000
    O44      O        0.25524    0.13135    0.13506    1.000
    O45      O        0.24476    0.86865    0.63501    1.000
    O46      O        0.61868    0.99478    0.88504    1.000
    O47      O        0.88132    0.00522    0.38499    1.000
    O48      O        0.75524    0.86865    0.63501    1.000
    O49      O        0.74476    0.13135    0.13506    1.000
    O50      O        0.88132    0.99478    0.61501    1.000
    O51      O        0.61868    0.00522    0.11496    1.000
    O52      O        0.74476    0.86865    0.86494    1.000
    O53      O        0.75524    0.13135    0.36499    1.000
    O54      O        0.88132    0.50522    0.61501    1.000
    O55      O        0.61868    0.49478    0.11496    1.000
    O56      O        0.74476    0.63135    0.86494    1.000
    O57      O        0.75524    0.36865    0.36499    1.000
    O58      O        0.61868    0.50522    0.88504    1.000
    O59      O        0.88132    0.49478    0.38499    1.000
    O60      O        0.75524    0.63135    0.63501    1.000
    O61      O        0.74476    0.36865    0.13506    1.000
    O62      O        0.11868    0.49478    0.38499    1.000
    O63      O        0.38132    0.50522    0.88504    1.000
    O64      O        0.25524    0.36865    0.13506    1.000
    O65      O        0.24476    0.63135    0.63501    1.000
    O66      O        0.38132    0.49478    0.11496    1.000
    O67      O        0.11868    0.50522    0.61501    1.000
    O68      O        0.24476    0.36865    0.36499    1.000
    O69      O        0.25524    0.63135    0.86494    1.000
    O70      O        0.15778    0.93423    0.77505    1.000
    O71      O        0.18421    0.09220    0.52512    1.000
    O72      O        0.31574    0.90775    0.02508    1.000
    O73      O        0.15778    0.06577    0.22485    1.000
    O74      O        0.34222    0.93423    0.72490    1.000
    O75      O        0.31574    0.09220    0.97492    1.000
    O76      O        0.18421    0.90775    0.47488    1.000
    O77      O        0.65778    0.93423    0.72490    1.000
    O78      O        0.84222    0.06577    0.22485    1.000
    O79      O        0.81574    0.90775    0.47488    1.000
    O80      O        0.68421    0.09220    0.97492    1.000
    O81      O        0.84222    0.93423    0.77505    1.000
    O82      O        0.65778    0.06577    0.27510    1.000
    O83      O        0.68421    0.90775    0.02508    1.000
    O84      O        0.81574    0.09220    0.52512    1.000
    O85      O        0.84222    0.56577    0.77505    1.000
    O86      O        0.65778    0.43423    0.27510    1.000
    O87      O        0.68421    0.59220    0.02508    1.000
    O88      O        0.81574    0.40775    0.52512    1.000
    O89      O        0.65778    0.56577    0.72490    1.000
    O90      O        0.84222    0.43423    0.22485    1.000
    O91      O        0.81574    0.59220    0.47488    1.000
    O92      O        0.68421    0.40775    0.97492    1.000
    O93      O        0.15778    0.43423    0.22485    1.000
    O94      O        0.34222    0.56577    0.72490    1.000
    O95      O        0.31574    0.40775    0.97492    1.000
    O96      O        0.18421    0.59220    0.47488    1.000
    O97      O        0.34222    0.43423    0.27510    1.000
    O98      O        0.15778    0.56577    0.77505    1.000
    O99      O        0.18421    0.40775    0.52512    1.000
    O100     O        0.31574    0.59220    0.02508    1.000
    C101     C        0.11360    0.96218    0.71166    1.000
    C102     C        0.21220    0.13638    0.46173    1.000
    C103     C        0.28780    0.86362    0.96168    1.000
    C104     C        0.11360    0.03777    0.28834    1.000
    C105     C        0.38635    0.96218    0.78830    1.000
    C106     C        0.28780    0.13638    0.03832    1.000
    C107     C        0.21220    0.86362    0.53827    1.000
    C108     C        0.61360    0.96218    0.78830    1.000
    C109     C        0.88635    0.03777    0.28834    1.000
    C110     C        0.78780    0.86362    0.53827    1.000
    C111     C        0.71220    0.13638    0.03832    1.000
    C112     C        0.88635    0.96218    0.71166    1.000
    C113     C        0.61360    0.03777    0.21170    1.000
    C114     C        0.71220    0.86362    0.96168    1.000
    C115     C        0.78780    0.13638    0.46173    1.000
    C116     C        0.88635    0.53777    0.71166    1.000
    C117     C        0.61360    0.46223    0.21170    1.000
    C118     C        0.71220    0.63638    0.96168    1.000
    C119     C        0.78780    0.36362    0.46173    1.000
    C120     C        0.61360    0.53777    0.78830    1.000
    C121     C        0.88635    0.46223    0.28834    1.000
    C122     C        0.78780    0.63638    0.53827    1.000
    C123     C        0.71220    0.36362    0.03832    1.000
    C124     C        0.11360    0.46223    0.28834    1.000
    C125     C        0.38635    0.53777    0.78830    1.000
    C126     C        0.28780    0.36362    0.03832    1.000
    C127     C        0.21220    0.63638    0.53827    1.000
    C128     C        0.38635    0.46223    0.21170    1.000
    C129     C        0.11360    0.53777    0.71166    1.000
    C130     C        0.21220    0.36362    0.46173    1.000
    C131     C        0.28780    0.63638    0.96168    1.000
    C132     C        0.05196    0.94600    0.78229    1.000
    C133     C        0.19602    0.19802    0.53226    1.000
    C134     C        0.30398    0.80194    0.03231    1.000
    C135     C        0.05196    0.05400    0.21771    1.000
    C136     C        0.44804    0.94600    0.71767    1.000
    C137     C        0.30398    0.19802    0.96769    1.000
    C138     C        0.19602    0.80194    0.46774    1.000
    C139     C        0.55196    0.94600    0.71767    1.000
    C140     C        0.94804    0.05400    0.21771    1.000
    C141     C        0.80398    0.80194    0.46774    1.000
    C142     C        0.69602    0.19802    0.96769    1.000
    C143     C        0.94804    0.94600    0.78229    1.000
    C144     C        0.55196    0.05400    0.28233    1.000
    C145     C        0.69602    0.80194    0.03231    1.000
    C146     C        0.80398    0.19802    0.53226    1.000
    C147     C        0.94804    0.55400    0.78229    1.000
    C148     C        0.55196    0.44600    0.28233    1.000
    C149     C        0.69602    0.69802    0.03231    1.000
    C150     C        0.80398    0.30194    0.53226    1.000
    C151     C        0.55196    0.55400    0.71767    1.000
    C152     C        0.94804    0.44600    0.21771    1.000
    C153     C        0.80398    0.69802    0.46774    1.000
    C154     C        0.69602    0.30194    0.96769    1.000
    C155     C        0.05196    0.44600    0.21771    1.000
    C156     C        0.44804    0.55400    0.71767    1.000
    C157     C        0.30398    0.30194    0.96769    1.000
    C158     C        0.19602    0.69802    0.46774    1.000
    C159     C        0.44804    0.44600    0.28233    1.000
    C160     C        0.05196    0.55400    0.78229    1.000
    C161     C        0.19602    0.30194    0.53226    1.000
    C162     C        0.30398    0.69802    0.03231    1.000
    C163     C        0.03445    0.91644    0.88833    1.000
    C164     C        0.16646    0.21553    0.63830    1.000
    C165     C        0.33354    0.78447    0.13825    1.000
    C166     C        0.03445    0.08356    0.11167    1.000
    C167     C        0.46555    0.91644    0.61172    1.000
    C168     C        0.33354    0.21553    0.86165    1.000
    C169     C        0.16646    0.78447    0.36170    1.000
    C170     C        0.53445    0.91644    0.61172    1.000
    C171     C        0.96555    0.08356    0.11167    1.000
    C172     C        0.83354    0.78447    0.36170    1.000
    C173     C        0.66641    0.21553    0.86165    1.000
    C174     C        0.96555    0.91644    0.88833    1.000
    C175     C        0.53445    0.08356    0.38828    1.000
    C176     C        0.66641    0.78447    0.13825    1.000
    C177     C        0.83354    0.21553    0.63830    1.000
    C178     C        0.96555    0.58356    0.88833    1.000
    C179     C        0.53445    0.41644    0.38828    1.000
    C180     C        0.66641    0.71553    0.13825    1.000
    C181     C        0.83354    0.28447    0.63830    1.000
    C182     C        0.53445    0.58356    0.61172    1.000
    C183     C        0.96555    0.41644    0.11167    1.000
    C184     C        0.83354    0.71553    0.36170    1.000
    C185     C        0.66641    0.28447    0.86165    1.000
    C186     C        0.03445    0.41644    0.11167    1.000
    C187     C        0.46555    0.58356    0.61172    1.000
    C188     C        0.33354    0.28447    0.86165    1.000
    C189     C        0.16646    0.71553    0.36170    1.000
    C190     C        0.46555    0.41644    0.38828    1.000
    C191     C        0.03445    0.58356    0.88833    1.000
    C192     C        0.16646    0.28447    0.63830    1.000
    C193     C        0.33354    0.71553    0.13825    1.000
    O194     O        0.00000    0.96522    0.71250    1.000
    O195     O        0.21524    0.24998    0.46248    1.000
    O196     O        0.28476    0.74998    0.96252    1.000
    O197     O        0.00000    0.03473    0.28750    1.000
    O198     O        0.50000    0.96522    0.78745    1.000
    O199     O        0.28476    0.24998    0.03748    1.000
    O200     O        0.21524    0.74998    0.53752    1.000
    O201     O        0.78476    0.74998    0.53752    1.000
    O202     O        0.71524    0.24998    0.03748    1.000
    O203     O        0.71524    0.74998    0.96252    1.000
    O204     O        0.78476    0.24998    0.46248    1.000
    O205     O        0.00000    0.53473    0.71250    1.000
    O206     O        0.50000    0.46527    0.21245    1.000
    O207     O        0.50000    0.53473    0.78745    1.000
    O208     O        0.00000    0.46527    0.28750    1.000
    H209     H        0.22369    0.00892    0.29417    1.000
    H210     H        0.27631    0.99108    0.79421    1.000
    H211     H        0.25890    0.02629    0.04424    1.000
    H212     H        0.24106    0.97366    0.54419    1.000
    H213     H        0.77631    0.00892    0.29417    1.000
    H214     H        0.75890    0.97366    0.54419    1.000
    H215     H        0.74106    0.97366    0.95576    1.000
    H216     H        0.74106    0.52629    0.95576    1.000
    H217     H        0.75890    0.47366    0.45581    1.000
    H218     H        0.75890    0.52629    0.54419    1.000
    H219     H        0.74106    0.47366    0.04424    1.000
    H220     H        0.22369    0.49108    0.29417    1.000
    H221     H        0.24106    0.52629    0.54419    1.000
    H222     H        0.27631    0.49108    0.20579    1.000
    H223     H        0.25890    0.52629    0.95576    1.000
    H224     H        0.06847    0.89954    0.94938    1.000
    H225     H        0.14952    0.18155    0.69945    1.000
    H226     H        0.35048    0.81845    0.19940    1.000
    H227     H        0.06847    0.10046    0.05062    1.000
    H228     H        0.43153    0.89954    0.55058    1.000
    H229     H        0.35048    0.18155    0.80060    1.000
    H230     H        0.14952    0.81845    0.30055    1.000
    H231     H        0.56847    0.89954    0.55058    1.000
    H232     H        0.93153    0.10046    0.05062    1.000
    H233     H        0.85043    0.81845    0.30055    1.000
    H234     H        0.64952    0.18155    0.80060    1.000
    H235     H        0.93153    0.89954    0.94938    1.000
    H236     H        0.64952    0.81845    0.19940    1.000
    H237     H        0.85043    0.18155    0.69945    1.000
    H238     H        0.93153    0.60046    0.94938    1.000
    H239     H        0.56847    0.39954    0.44942    1.000
    H240     H        0.64952    0.68150    0.19940    1.000
    H241     H        0.85043    0.31845    0.69945    1.000
    H242     H        0.56847    0.60046    0.55058    1.000
    H243     H        0.93153    0.39954    0.05062    1.000
    H244     H        0.85043    0.68150    0.30055    1.000
    H245     H        0.64952    0.31845    0.80060    1.000
    H246     H        0.06847    0.39954    0.05062    1.000
    H247     H        0.43153    0.60046    0.55058    1.000
    H248     H        0.35048    0.31845    0.80060    1.000
    H249     H        0.14952    0.68150    0.30055    1.000
    H250     H        0.43153    0.39954    0.44942    1.000
    H251     H        0.06847    0.60046    0.94938    1.000
    H252     H        0.14952    0.31845    0.69945    1.000
    H253     H        0.35048    0.68150    0.19940    1.000
    H254     H        0.55210    0.05860    0.46849    1.000
    H255     H        0.76900    0.99264    0.06744    1.000
