# CIF file generated by openbabel 3.1.1, see https://openbabel.org
data_I
_chemical_name_common 'MIL-160'
_cell_length_a 21.0738
_cell_length_b 21.0738
_cell_length_c 10.6469
_cell_angle_alpha 90
_cell_angle_beta 90
_cell_angle_gamma 90
_space_group_name_H-M_alt 'I 41/a m d'
_space_group_name_Hall '-I 4bd 2'
loop_
    _symmetry_equiv_pos_as_xyz
    x,y,z
    1/2-x,-y,1/2+z
    1/4-y,3/4+x,1/4+z
    1/4+y,1/4-x,3/4+z
    1/2-x,y,1/2-z
    x,-y,-z
    1/4+y,3/4+x,1/4-z
    1/4-y,1/4-x,3/4-z
    -x,-y,-z
    1/2+x,y,1/2-z
    3/4+y,1/4-x,3/4-z
    3/4-y,3/4+x,1/4-z
    1/2+x,-y,1/2+z
    -x,y,z
    3/4-y,1/4-x,3/4+z
    3/4+y,3/4+x,1/4+z
    1/2+x,1/2+y,1/2+z
    -x,1/2-y,z
    3/4-y,1/4+x,3/4+z
    3/4+y,3/4-x,1/4+z
    -x,1/2+y,-z
    1/2+x,1/2-y,1/2-z
    3/4+y,1/4+x,3/4-z
    3/4-y,3/4-x,1/4-z
    1/2-x,1/2-y,1/2-z
    x,1/2+y,-z
    1/4+y,3/4-x,1/4-z
    1/4-y,1/4+x,3/4-z
    x,1/2-y,z
    1/2-x,1/2+y,1/2+z
    1/4-y,3/4-x,1/4+z
    1/4+y,1/4+x,3/4+z
loop_
    _atom_site_label
    _atom_site_type_symbol
    _atom_site_fract_x
    _atom_site_fract_y
    _atom_site_fract_z
    _atom_site_occupancy
    Al1      Al       0.31511    0.00000    0.00000    1.000
    O1       O        0.25530    0.00530    0.12500    1.000
    O2       O        0.38133    0.00523    0.11497    1.000
    O3       O        0.34222    0.06577    0.27510    1.000
    C1       C        0.38638    0.03779    0.21170    1.000
    C2       C        0.44804    0.05399    0.28230    1.000
    C3       C        0.46554    0.08356    0.38830    1.000
    O4       O        0.50000    0.03475    0.21250    1.000
    H8       H        0.28718    0.03715    0.12500    1.000
    H9       H        0.43153    0.10046    0.44942    1.000
