# CIF file generated by openbabel 3.1.1, see https://openbabel.org
data_I
_chemical_name_common '?'
_cell_length_a 25.52
_cell_length_b 25.52
_cell_length_c 11.48
_cell_angle_alpha 90
_cell_angle_beta 90
_cell_angle_gamma 120
_space_group_name_H-M_alt 'P 6/m m m'
_space_group_name_Hall '-P 6 2'
loop_
    _symmetry_equiv_pos_as_xyz
    x,y,z
    -y,x-y,z
    -x+y,-x,z
    -x,-y,z
    y,-x+y,z
    x-y,x,z
    y,x,-z
    x-y,-y,-z
    -x,-x+y,-z
    -y,-x,-z
    -x+y,y,-z
    x,x-y,-z
    -x,-y,-z
    y,-x+y,-z
    x-y,x,-z
    x,y,-z
    -y,x-y,-z
    -x+y,-x,-z
    -y,-x,z
    -x+y,y,z
    x,x-y,z
    y,x,z
    x-y,-y,z
    -x,-x+y,z
loop_
    _atom_site_label
    _atom_site_type_symbol
    _atom_site_fract_x
    _atom_site_fract_y
    _atom_site_fract_z
    _atom_site_occupancy
    Zr1      Zr       0.55597    0.44403    0.00000    1.000
    Zr2      Zr       0.43124    0.43124    0.84640    1.000
    O1       O        0.52810    0.36660    0.88580    1.000
    O2       O        0.44900    0.35980    0.78550    1.000
    O3       O        0.34450    0.34450    0.85550    1.000
    O4       O        0.43420    0.43420    0.65450    1.000
    O5       O        0.40280    0.46120    0.00000    1.000
    O6       O        0.47520    0.52480    0.84690    1.000
    C1       C        0.48250    0.34190    0.81620    1.000
    C2       C        0.46930    0.28220    0.75760    1.000
    C3       C        0.49000    0.24500    0.80300    1.000
    H3       H        0.51821    0.25910    0.86560    1.000
    C4       C        0.43360    0.26190    0.66090    1.000
    H4       H        0.42230    0.28851    0.62566    1.000
    C5       C        0.41250    0.20630    0.61000    1.000
    C6       C        0.37500    0.18750    0.50000    1.000
    H6A      H        0.34862    0.20563    0.50000    0.500
    H6B      H        0.34862    0.14299    0.50000    0.500
