# CIF file generated by openbabel 3.1.1, see https://openbabel.org
data_I
_chemical_name_common '?'
_cell_length_a 12.03
_cell_length_b 14.935
_cell_length_c 14.066
_cell_angle_alpha 90
_cell_angle_beta 101.96
_cell_angle_gamma 90
_space_group_name_H-M_alt 'P 1 21/c 1'
_space_group_name_Hall '-P 2ybc'
loop_
    _symmetry_equiv_pos_as_xyz
    x,y,z
    -x,1/2+y,1/2-z
    -x,-y,-z
    x,1/2-y,1/2+z
loop_
    _atom_site_label
    _atom_site_type_symbol
    _atom_site_fract_x
    _atom_site_fract_y
    _atom_site_fract_z
    _atom_site_occupancy
    Al2      Al       0.00000    0.50000    0.50000    1.000
    Al1      Al       0.76477    0.43321    0.56478    1.000
    Al3      Al       0.50000    0.50000    0.50000    1.000
    O4       O        0.87640    0.34847    0.61859    1.000
    O7       O        0.31310    0.88900    0.84166    1.000
    O2       O        0.85005    0.46897    0.47593    1.000
    H2       H        0.81107    0.47146    0.40994    1.000
    O5       O        0.16840    0.02225    0.84446    1.000
    O1       O        0.65301    0.51468    0.51848    1.000
    H1       H        0.67811    0.57184    0.50202    1.000
    O3       O        0.04080    0.40210    0.58893    1.000
    O9       O        0.30850    0.65433    0.52743    1.000
    O6       O        0.01830    0.07696    0.89603    1.000
    O10      O        0.49140    0.61229    0.55970    1.000
    O8       O        0.49090    0.94070    0.87910    1.000
    N4       N        0.54710    0.74330    0.69430    1.000
    H4       H        0.60641    0.71532    0.68092    1.000
    N3       N        0.55260    0.80510    0.76240    1.000
    N2       N        0.18780    0.19050    0.75820    1.000
    N1       N        0.15550    0.26180    0.70020    1.000
    H1A      H        0.20215    0.29531    0.67492    1.000
    C3       C        0.99860    0.21120    0.73960    1.000
    H3       H        0.92202    0.20481    0.74627    1.000
    C1       C        0.98280    0.34790    0.62610    1.000
    C10      C        0.41020    0.65970    0.57210    1.000
    C5       C        0.09350    0.07980    0.84530    1.000
    C6       C        0.41430    0.89230    0.83210    1.000
    C8       C        0.36960    0.78280    0.68890    1.000
    H8       H        0.28916    0.78730    0.67238    1.000
    C4       C        0.09110    0.15870    0.78140    1.000
    C2       C        0.04230    0.27490    0.68600    1.000
    C7       C        0.44400    0.82970    0.76000    1.000
    C9       C        0.43840    0.72860    0.64800    1.000
