# primitive CIF file created by Jmol 14.22.1  2017-10-28 11:29
data_primitive
_cell_length_a 17.8348
_cell_length_b 17.8348
_cell_length_c 17.8348
_cell_angle_alpha 90.0
_cell_angle_beta 90.0
_cell_angle_gamma 90.0

_symmetry_space_group_name_H-M 'P 1'
loop_
_space_group_symop_operation_xyz
'x,y,z'

loop_
_atom_site_label
_atom_site_fract_x
_atom_site_fract_y
_atom_site_fract_z
H	0.61005   	0.61005   	0.61005   
H	0.60895   	0.37156   	0.41021   
H	0.41021   	0.60895   	0.37156   
H	0.37156   	0.41021   	0.60895   
H	0.12858   	0.08977   	0.60897   
H	0.08995   	0.89100   	0.37160   
H	0.89116   	0.12839   	0.41022   
H	0.89002   	0.88999   	0.61004   
H	0.60897   	0.12858   	0.08977   
H	0.61004   	0.89002   	0.89000   
H	0.37160   	0.08995   	0.89101   
H	0.41022   	0.89116   	0.12839   
H	0.08977   	0.60896   	0.12858   
H	0.12839   	0.41022   	0.89116   
H	0.89000   	0.61004   	0.89002   
H	0.89101   	0.37160   	0.08995   
H	0.18889   	0.81153   	0.02437   
H	0.81151   	0.18907   	0.96126   
H	0.31116   	0.68864   	0.02439   
H	0.68845   	0.31106   	0.96127   
H	0.31113   	0.81147   	0.47550   
H	0.68854   	0.18899   	0.53869   
H	0.18897   	0.68845   	0.47577   
H	0.81162   	0.31097   	0.53857   
H	0.02437   	0.18889   	0.81153   
H	0.96127   	0.81151   	0.18907   
H	0.02439   	0.31116   	0.68864   
H	0.96128   	0.68844   	0.31106   
H	0.47550   	0.31113   	0.81147   
H	0.53869   	0.68854   	0.18900   
H	0.47577   	0.18897   	0.68846   
H	0.53857   	0.81162   	0.31097   
H	0.81153   	0.02437   	0.18888   
H	0.18907   	0.96127   	0.81151   
H	0.68864   	0.02439   	0.31116   
H	0.31106   	0.96127   	0.68845   
H	0.81147   	0.47550   	0.31113   
H	0.18899   	0.53869   	0.68854   
H	0.68846   	0.47577   	0.18897   
H	0.31097   	0.53857   	0.81162   
H	0.31165   	0.31096   	0.00824   
H	0.68784   	0.68956   	0.00588   
H	0.18834   	0.18912   	0.00808   
H	0.81204   	0.81062   	0.00600   
H	0.18838   	0.31084   	0.49184   
H	0.81209   	0.68946   	0.49404   
H	0.31176   	0.18908   	0.49180   
H	0.68801   	0.81064   	0.49407   
H	0.00824   	0.31164   	0.31096   
H	0.00588   	0.68784   	0.68956   
H	0.00808   	0.18834   	0.18912   
H	0.00600   	0.81204   	0.81062   
H	0.49184   	0.18838   	0.31084   
H	0.49405   	0.81209   	0.68946   
H	0.49180   	0.31176   	0.18908   
H	0.49407   	0.68800   	0.81064   
H	0.31096   	0.00824   	0.31165   
H	0.68956   	0.00588   	0.68784   
H	0.18912   	0.00808   	0.18834   
H	0.81063   	0.00600   	0.81204   
H	0.31084   	0.49184   	0.18838   
H	0.68946   	0.49404   	0.81209   
H	0.18908   	0.49180   	0.31176   
H	0.81064   	0.49407   	0.68801   
C	0.15981   	0.69146   	0.02428   
C	0.84006   	0.30919   	0.96565   
C	0.34020   	0.80872   	0.02419   
C	0.65989   	0.19093   	0.96554   
C	0.34025   	0.69141   	0.47579   
C	0.65997   	0.30914   	0.53438   
C	0.15985   	0.80852   	0.47585   
C	0.84020   	0.19083   	0.53433   
C	0.02428   	0.15981   	0.69146   
C	0.96565   	0.84006   	0.30919   
C	0.02419   	0.34020   	0.80872   
C	0.96554   	0.65989   	0.19093   
C	0.47579   	0.34025   	0.69141   
C	0.53438   	0.65997   	0.30914   
C	0.47585   	0.15985   	0.80852   
C	0.53433   	0.84021   	0.19084   
C	0.69146   	0.02428   	0.15981   
C	0.30919   	0.96565   	0.84006   
C	0.80872   	0.02418   	0.34020   
C	0.19093   	0.96554   	0.65989   
C	0.69141   	0.47579   	0.34025   
C	0.30913   	0.53438   	0.65996   
C	0.80852   	0.47585   	0.15985   
C	0.19084   	0.53433   	0.84021   
C	0.21282   	0.75529   	0.02468   
C	0.78724   	0.24517   	0.96128   
C	0.28722   	0.74488   	0.02467   
C	0.71271   	0.25496   	0.96126   
C	0.28724   	0.75521   	0.47530   
C	0.71281   	0.24510   	0.53866   
C	0.21286   	0.74471   	0.47539   
C	0.78735   	0.25486   	0.53861   
C	0.02469   	0.21282   	0.75529   
C	0.96128   	0.78724   	0.24517   
C	0.02467   	0.28722   	0.74488   
C	0.96126   	0.71271   	0.25496   
C	0.47530   	0.28724   	0.75521   
C	0.53866   	0.71281   	0.24510   
C	0.47539   	0.21286   	0.74472   
C	0.53861   	0.78735   	0.25486   
C	0.75529   	0.02468   	0.21282   
C	0.24517   	0.96128   	0.78724   
C	0.74488   	0.02467   	0.28722   
C	0.25496   	0.96126   	0.71271   
C	0.75521   	0.47530   	0.28724   
C	0.24510   	0.53866   	0.71281   
C	0.74472   	0.47539   	0.21285   
C	0.25486   	0.53861   	0.78735   
C	0.19163   	0.34013   	0.00606   
C	0.80782   	0.65990   	0.00407   
C	0.30835   	0.15996   	0.00585   
C	0.69208   	0.84031   	0.00402   
C	0.30838   	0.34009   	0.49406   
C	0.69211   	0.65987   	0.49598   
C	0.19177   	0.15985   	0.49407   
C	0.80801   	0.84019   	0.49600   
C	0.00606   	0.19163   	0.34013   
C	0.00407   	0.80782   	0.65989   
C	0.00586   	0.30835   	0.15996   
C	0.00401   	0.69208   	0.84031   
C	0.49406   	0.30838   	0.34009   
C	0.49598   	0.69211   	0.65987   
C	0.49407   	0.19176   	0.15985   
C	0.49600   	0.80800   	0.84019   
C	0.34012   	0.00606   	0.19163   
C	0.65990   	0.00407   	0.80782   
C	0.15996   	0.00585   	0.30836   
C	0.84031   	0.00401   	0.69208   
C	0.34009   	0.49406   	0.30837   
C	0.65987   	0.49598   	0.69210   
C	0.15985   	0.49407   	0.19177   
C	0.84019   	0.49600   	0.80801   
C	0.25534   	0.28719   	0.00760   
C	0.74430   	0.71297   	0.00635   
C	0.24464   	0.21289   	0.00750   
C	0.75558   	0.78722   	0.00638   
C	0.24470   	0.28711   	0.49244   
C	0.75565   	0.71291   	0.49364   
C	0.25545   	0.21281   	0.49243   
C	0.74443   	0.78718   	0.49365   
C	0.00760   	0.25534   	0.28719   
C	0.00635   	0.74429   	0.71297   
C	0.00750   	0.24464   	0.21289   
C	0.00638   	0.75558   	0.78722   
C	0.49244   	0.24470   	0.28711   
C	0.49364   	0.75565   	0.71292   
C	0.49243   	0.25545   	0.21281   
C	0.49365   	0.74443   	0.78718   
C	0.28719   	0.00760   	0.25534   
C	0.71297   	0.00635   	0.74430   
C	0.21289   	0.00749   	0.24464   
C	0.78722   	0.00638   	0.75559   
C	0.28711   	0.49244   	0.24470   
C	0.71292   	0.49364   	0.75565   
C	0.21281   	0.49243   	0.25545   
C	0.78718   	0.49365   	0.74444   
O	0.20838   	0.40934   	0.01176   
O	0.79110   	0.59110   	0.99483   
O	0.29160   	0.09074   	0.01152   
O	0.70884   	0.90910   	0.99473   
O	0.29161   	0.40930   	0.48841   
O	0.70880   	0.59106   	0.50523   
O	0.20850   	0.09064   	0.48839   
O	0.79137   	0.90900   	0.50526   
O	0.01177   	0.20837   	0.40934   
O	0.99482   	0.79110   	0.59110   
O	0.01152   	0.29160   	0.09074   
O	0.99473   	0.70884   	0.90910   
O	0.48841   	0.29161   	0.40930   
O	0.50523   	0.70880   	0.59107   
O	0.48839   	0.20850   	0.09064   
O	0.50526   	0.79137   	0.90900   
O	0.40933   	0.01177   	0.20837   
O	0.59110   	0.99482   	0.79110   
O	0.09074   	0.01152   	0.29160   
O	0.90910   	0.99472   	0.70884   
O	0.40930   	0.48841   	0.29161   
O	0.59107   	0.50522   	0.70880   
O	0.09064   	0.48839   	0.20851   
O	0.90900   	0.50526   	0.79137   
O	0.18720   	0.62548   	0.02468   
O	0.81248   	0.37503   	0.96843   
O	0.31277   	0.87469   	0.02457   
O	0.68748   	0.12509   	0.96827   
O	0.31285   	0.62544   	0.47545   
O	0.68752   	0.37499   	0.53165   
O	0.18724   	0.87449   	0.47546   
O	0.81268   	0.12498   	0.53158   
O	0.02468   	0.18720   	0.62548   
O	0.96843   	0.81248   	0.37503   
O	0.02457   	0.31277   	0.87469   
O	0.96827   	0.68748   	0.12509   
O	0.47545   	0.31285   	0.62544   
O	0.53165   	0.68752   	0.37499   
O	0.47546   	0.18724   	0.87449   
O	0.53158   	0.81268   	0.12498   
O	0.62548   	0.02468   	0.18721   
O	0.37503   	0.96843   	0.81248   
O	0.87469   	0.02456   	0.31277   
O	0.12509   	0.96826   	0.68748   
O	0.62544   	0.47545   	0.31285   
O	0.37498   	0.53165   	0.68751   
O	0.87449   	0.47546   	0.18724   
O	0.12498   	0.53158   	0.81268   
O	0.18701   	0.50258   	0.12630   
O	0.81284   	0.49023   	0.87371   
O	0.31295   	0.99760   	0.12617   
O	0.68717   	0.00991   	0.87354   
O	0.31295   	0.50255   	0.37385   
O	0.68717   	0.49020   	0.62638   
O	0.18713   	0.99737   	0.37381   
O	0.81307   	0.00982   	0.62634   
O	0.12630   	0.18701   	0.50258   
O	0.87371   	0.81284   	0.49022   
O	0.12617   	0.31295   	0.99760   
O	0.87354   	0.68717   	0.00991   
O	0.37385   	0.31295   	0.50255   
O	0.62638   	0.68716   	0.49020   
O	0.37381   	0.18713   	0.99737   
O	0.62634   	0.81307   	0.00982   
O	0.50258   	0.12630   	0.18701   
O	0.49023   	0.87371   	0.81284   
O	0.99760   	0.12616   	0.31295   
O	0.00991   	0.87354   	0.68717   
O	0.50255   	0.37385   	0.31295   
O	0.49020   	0.62638   	0.68716   
O	0.99737   	0.37381   	0.18713   
O	0.00982   	0.62634   	0.81307   
O	0.20762   	0.53100   	0.90959   
O	0.79161   	0.47615   	0.09044   
O	0.29243   	0.96903   	0.90943   
O	0.70835   	0.02403   	0.09040   
O	0.29238   	0.53103   	0.59059   
O	0.70831   	0.47607   	0.40965   
O	0.20768   	0.96889   	0.59052   
O	0.79189   	0.02388   	0.40961   
O	0.90958   	0.20762   	0.53100   
O	0.09044   	0.79160   	0.47615   
O	0.90943   	0.29243   	0.96903   
O	0.09040   	0.70835   	0.02403   
O	0.59059   	0.29238   	0.53103   
O	0.40965   	0.70831   	0.47607   
O	0.59052   	0.20768   	0.96889   
O	0.40961   	0.79189   	0.02389   
O	0.53100   	0.90959   	0.20762   
O	0.47615   	0.09044   	0.79161   
O	0.96903   	0.90943   	0.29243   
O	0.02403   	0.09040   	0.70835   
O	0.53103   	0.59059   	0.29238   
O	0.47607   	0.40965   	0.70831   
O	0.96889   	0.59052   	0.20768   
O	0.02389   	0.40961   	0.79189   
O	0.05746   	0.44252   	0.05759   
O	0.92121   	0.57877   	0.92142   
O	0.44252   	0.05758   	0.05746   
O	0.57877   	0.92142   	0.92121   
O	0.44251   	0.44251   	0.44251   
O	0.57876   	0.57876   	0.57876   
O	0.05759   	0.05746   	0.44252   
O	0.92142   	0.92121   	0.57877   
O	0.05713   	0.56850   	0.95283   
O	0.92192   	0.40760   	0.06375   
O	0.44285   	0.93175   	0.95255   
O	0.57805   	0.09254   	0.06363   
O	0.44289   	0.56844   	0.54738   
O	0.57801   	0.40758   	0.43636   
O	0.05718   	0.93153   	0.54740   
O	0.92218   	0.09241   	0.43633   
O	0.95283   	0.05713   	0.56850   
O	0.06375   	0.92192   	0.40760   
O	0.95255   	0.44286   	0.93175   
O	0.06363   	0.57805   	0.09254   
O	0.54738   	0.44289   	0.56844   
O	0.43636   	0.57801   	0.40758   
O	0.54740   	0.05718   	0.93153   
O	0.43632   	0.92218   	0.09241   
O	0.56849   	0.95283   	0.05713   
O	0.40760   	0.06375   	0.92192   
O	0.93175   	0.95254   	0.44286   
O	0.09254   	0.06363   	0.57805   
O	0.56844   	0.54738   	0.44290   
O	0.40758   	0.43636   	0.57801   
O	0.93153   	0.54740   	0.05718   
O	0.09241   	0.43633   	0.92218   
Zr	0.13804   	0.51231   	0.01270   
Zr	0.86136   	0.48789   	0.98710   
Zr	0.36196   	0.98782   	0.01254   
Zr	0.63860   	0.01226   	0.98696   
Zr	0.36198   	0.51230   	0.48746   
Zr	0.63852   	0.48787   	0.51302   
Zr	0.13808   	0.98767   	0.48744   
Zr	0.86188   	0.01213   	0.51297   
Zr	0.01270   	0.13804   	0.51231   
Zr	0.98710   	0.86135   	0.48789   
Zr	0.01254   	0.36196   	0.98783   
Zr	0.98696   	0.63860   	0.01226   
Zr	0.48746   	0.36198   	0.51230   
Zr	0.51302   	0.63852   	0.48787   
Zr	0.48745   	0.13808   	0.98767   
Zr	0.51297   	0.86188   	0.01213   
Zr	0.51231   	0.01270   	0.13804   
Zr	0.48790   	0.98710   	0.86136   
Zr	0.98782   	0.01254   	0.36196   
Zr	0.01226   	0.98695   	0.63860   
Zr	0.51230   	0.48746   	0.36198   
Zr	0.48787   	0.51302   	0.63852   
Zr	0.98767   	0.48744   	0.13808   
Zr	0.01213   	0.51297   	0.86188   
